*SPEF "IEEE 1481-1999"
*DESIGN "riscv_cpu"
*DATE "Wed Jul 31 19:18:19 2024"
*VENDOR "SYNOPSYS INC"
*PROGRAM "Synopsys Design Compiler cmos"
*VERSION "T-2022.03-SP4"
*DESIGN_FLOW "SYNTHESIS"
*DIVIDER /
*DELIMITER :
*BUS_DELIMITER []
*T_UNIT 1.0 NS
*C_UNIT 0.0010 PF
*R_UNIT 1000.0 KOHM
*L_UNIT 1.0 HENRY

*PORTS

clk I *L 0.000e+00 *S 0.000e+00 0.000e+00 
rst I *L 0.000e+00 *S 0.000e+00 0.000e+00 
mem_data_i\[31\] I *L 0.000e+00 *S 0.000e+00 0.000e+00 
mem_data_i\[30\] I *L 0.000e+00 *S 0.000e+00 0.000e+00 
mem_data_i\[29\] I *L 0.000e+00 *S 0.000e+00 0.000e+00 
mem_data_i\[28\] I *L 0.000e+00 *S 0.000e+00 0.000e+00 
mem_data_i\[27\] I *L 0.000e+00 *S 0.000e+00 0.000e+00 
mem_data_i\[26\] I *L 0.000e+00 *S 0.000e+00 0.000e+00 
mem_data_i\[25\] I *L 0.000e+00 *S 0.000e+00 0.000e+00 
mem_data_i\[24\] I *L 0.000e+00 *S 0.000e+00 0.000e+00 
mem_data_i\[23\] I *L 0.000e+00 *S 0.000e+00 0.000e+00 
mem_data_i\[22\] I *L 0.000e+00 *S 0.000e+00 0.000e+00 
mem_data_i\[21\] I *L 0.000e+00 *S 0.000e+00 0.000e+00 
mem_data_i\[20\] I *L 0.000e+00 *S 0.000e+00 0.000e+00 
mem_data_i\[19\] I *L 0.000e+00 *S 0.000e+00 0.000e+00 
mem_data_i\[18\] I *L 0.000e+00 *S 0.000e+00 0.000e+00 
mem_data_i\[17\] I *L 0.000e+00 *S 0.000e+00 0.000e+00 
mem_data_i\[16\] I *L 0.000e+00 *S 0.000e+00 0.000e+00 
mem_data_i\[15\] I *L 0.000e+00 *S 0.000e+00 0.000e+00 
mem_data_i\[14\] I *L 0.000e+00 *S 0.000e+00 0.000e+00 
mem_data_i\[13\] I *L 0.000e+00 *S 0.000e+00 0.000e+00 
mem_data_i\[12\] I *L 0.000e+00 *S 0.000e+00 0.000e+00 
mem_data_i\[11\] I *L 0.000e+00 *S 0.000e+00 0.000e+00 
mem_data_i\[10\] I *L 0.000e+00 *S 0.000e+00 0.000e+00 
mem_data_i\[9\] I *L 0.000e+00 *S 0.000e+00 0.000e+00 
mem_data_i\[8\] I *L 0.000e+00 *S 0.000e+00 0.000e+00 
mem_data_i\[7\] I *L 0.000e+00 *S 0.000e+00 0.000e+00 
mem_data_i\[6\] I *L 0.000e+00 *S 0.000e+00 0.000e+00 
mem_data_i\[5\] I *L 0.000e+00 *S 0.000e+00 0.000e+00 
mem_data_i\[4\] I *L 0.000e+00 *S 0.000e+00 0.000e+00 
mem_data_i\[3\] I *L 0.000e+00 *S 0.000e+00 0.000e+00 
mem_data_i\[2\] I *L 0.000e+00 *S 0.000e+00 0.000e+00 
mem_data_i\[1\] I *L 0.000e+00 *S 0.000e+00 0.000e+00 
mem_data_i\[0\] I *L 0.000e+00 *S 0.000e+00 0.000e+00 
mem_busy_i\[1\] I *L 0.000e+00 *S 0.000e+00 0.000e+00 
mem_busy_i\[0\] I *L 0.000e+00 *S 0.000e+00 0.000e+00 
mem_done_i\[1\] I *L 0.000e+00 *S 0.000e+00 0.000e+00 
mem_done_i\[0\] I *L 0.000e+00 *S 0.000e+00 0.000e+00 
mem_addr_o\[31\] O *L 0.000e+00 *S 2.375e-02 2.693e-02 
mem_addr_o\[30\] O *L 0.000e+00 *S 2.387e-02 2.706e-02 
mem_addr_o\[29\] O *L 0.000e+00 *S 2.451e-02 2.777e-02 
mem_addr_o\[28\] O *L 0.000e+00 *S 5.509e-03 6.544e-03 
mem_addr_o\[27\] O *L 0.000e+00 *S 5.582e-03 6.629e-03 
mem_addr_o\[26\] O *L 0.000e+00 *S 4.068e-03 4.865e-03 
mem_addr_o\[25\] O *L 0.000e+00 *S 5.871e-04 7.253e-04 
mem_addr_o\[24\] O *L 0.000e+00 *S 1.982e-03 2.448e-03 
mem_addr_o\[23\] O *L 0.000e+00 *S 4.243e-03 5.070e-03 
mem_addr_o\[22\] O *L 0.000e+00 *S 3.185e-03 3.843e-03 
mem_addr_o\[21\] O *L 0.000e+00 *S 1.479e-03 1.827e-03 
mem_addr_o\[20\] O *L 0.000e+00 *S 4.940e-03 5.881e-03 
mem_addr_o\[19\] O *L 0.000e+00 *S 8.846e-04 1.093e-03 
mem_addr_o\[18\] O *L 0.000e+00 *S 4.272e-03 5.102e-03 
mem_addr_o\[17\] O *L 0.000e+00 *S 5.748e-04 7.102e-04 
mem_addr_o\[16\] O *L 0.000e+00 *S 1.304e-03 1.611e-03 
mem_addr_o\[15\] O *L 0.000e+00 *S 1.298e-03 1.603e-03 
mem_addr_o\[14\] O *L 0.000e+00 *S 8.054e-04 9.950e-04 
mem_addr_o\[13\] O *L 0.000e+00 *S 7.322e-04 9.046e-04 
mem_addr_o\[12\] O *L 0.000e+00 *S 3.407e-03 4.100e-03 
mem_addr_o\[11\] O *L 0.000e+00 *S 1.369e-03 1.691e-03 
mem_addr_o\[10\] O *L 0.000e+00 *S 4.434e-03 5.292e-03 
mem_addr_o\[9\] O *L 0.000e+00 *S 1.092e-03 1.349e-03 
mem_addr_o\[8\] O *L 0.000e+00 *S 1.190e-03 1.470e-03 
mem_addr_o\[7\] O *L 0.000e+00 *S 9.776e-04 1.208e-03 
mem_addr_o\[6\] O *L 0.000e+00 *S 1.738e-03 2.148e-03 
mem_addr_o\[5\] O *L 0.000e+00 *S 4.177e-03 4.992e-03 
mem_addr_o\[4\] O *L 0.000e+00 *S 4.947e-03 5.889e-03 
mem_addr_o\[3\] O *L 0.000e+00 *S 5.333e-03 6.338e-03 
mem_addr_o\[2\] O *L 0.000e+00 *S 8.542e-03 1.005e-02 
mem_addr_o\[1\] O *L 0.000e+00 *S 9.916e-03 1.158e-02 
mem_addr_o\[0\] O *L 0.000e+00 *S 1.166e-02 1.351e-02 
mem_data_o\[31\] O *L 0.000e+00 *S 4.664e-03 5.296e-03 
mem_data_o\[30\] O *L 0.000e+00 *S 2.588e-03 2.945e-03 
mem_data_o\[29\] O *L 0.000e+00 *S 4.740e-03 5.381e-03 
mem_data_o\[28\] O *L 0.000e+00 *S 2.011e-03 2.289e-03 
mem_data_o\[27\] O *L 0.000e+00 *S 1.280e-02 1.433e-02 
mem_data_o\[26\] O *L 0.000e+00 *S 1.224e-02 1.371e-02 
mem_data_o\[25\] O *L 0.000e+00 *S 1.235e-02 1.384e-02 
mem_data_o\[24\] O *L 0.000e+00 *S 2.562e-03 2.915e-03 
mem_data_o\[23\] O *L 0.000e+00 *S 1.807e-02 2.015e-02 
mem_data_o\[22\] O *L 0.000e+00 *S 9.814e-03 1.102e-02 
mem_data_o\[21\] O *L 0.000e+00 *S 9.857e-03 1.107e-02 
mem_data_o\[20\] O *L 0.000e+00 *S 1.080e-02 1.211e-02 
mem_data_o\[19\] O *L 0.000e+00 *S 1.042e-02 1.169e-02 
mem_data_o\[18\] O *L 0.000e+00 *S 1.412e-02 1.580e-02 
mem_data_o\[17\] O *L 0.000e+00 *S 1.170e-02 1.311e-02 
mem_data_o\[16\] O *L 0.000e+00 *S 5.221e-03 5.916e-03 
mem_data_o\[15\] O *L 0.000e+00 *S 2.177e-03 2.478e-03 
mem_data_o\[14\] O *L 0.000e+00 *S 2.573e-03 2.928e-03 
mem_data_o\[13\] O *L 0.000e+00 *S 8.862e-03 9.967e-03 
mem_data_o\[12\] O *L 0.000e+00 *S 4.632e-03 5.260e-03 
mem_data_o\[11\] O *L 0.000e+00 *S 1.492e-02 1.668e-02 
mem_data_o\[10\] O *L 0.000e+00 *S 5.466e-03 6.189e-03 
mem_data_o\[9\] O *L 0.000e+00 *S 1.144e-02 1.282e-02 
mem_data_o\[8\] O *L 0.000e+00 *S 2.336e-03 2.660e-03 
mem_data_o\[7\] O *L 0.000e+00 *S 2.676e-03 3.045e-03 
mem_data_o\[6\] O *L 0.000e+00 *S 7.318e-03 8.249e-03 
mem_data_o\[5\] O *L 0.000e+00 *S 5.774e-03 6.532e-03 
mem_data_o\[4\] O *L 0.000e+00 *S 2.814e-03 3.201e-03 
mem_data_o\[3\] O *L 0.000e+00 *S 1.971e-03 2.243e-03 
mem_data_o\[2\] O *L 0.000e+00 *S 6.915e-03 7.801e-03 
mem_data_o\[1\] O *L 0.000e+00 *S 9.663e-03 1.085e-02 
mem_data_o\[0\] O *L 0.000e+00 *S 8.645e-03 9.725e-03 

*R_NET rst 3.732e+01
*DRIVER rst
*CELL NULL
*C2_R1_C1 1.866e+01 2.156e-04 1.866e+01 
*LOADS
*RC pipe_mem_wb0/U3:A2 1.119e-03
*RC stage_mem0/U5:A 1.653e-03
*RC stage_mem0/U4:A1 7.979e-04
*RC pipe_ex_mem0/U3:A 6.510e-04
*RC pipe_ex_mem0/U8:A2 7.593e-04
*RC execute_alu0/U3:A 5.743e-04
*RC execute_alu0/U6:A2 6.437e-04
*RC execute_alu0/U51:A3 6.536e-04
*RC pipe_id_ex0/U3:A 7.908e-04
*RC pipe_id_ex0/U8:A2 7.809e-04
*RC regfile0/U2:A 9.380e-05
*RC inst_decoder0/U3:A 9.007e-05
*RC pipe_if_id0/U3:A2 9.161e-04
*RC pipe_if_id0/U6:A1 8.770e-04
*RC inst_fetch0/U12:A1 1.444e-03
*RC inst_fetch0/U4:A 8.725e-04
*RC inst_fetch0/U3:A1 8.222e-04
*RC inst_fetch0/U19:A1 1.082e-03
*RC program_counter0/U14:A2 8.631e-04
*RC program_counter0/U3:A 1.229e-03
*RC stall_ctrl0/U3:A 9.007e-05
*END

*R_NET mem_data_i\[31\] 6.681e+00
*DRIVER mem_data_i\[31\]
*CELL NULL
*C2_R1_C1 3.340e+00 7.334e-05 3.340e+00 
*LOADS
*RC stage_mem0/U60:A4 8.556e-05
*RC stage_mem0/U68:A2 1.442e-05
*RC stage_mem0/U199:A1 9.696e-05
*RC inst_fetch0/U65:A2 1.123e-04
*END

*R_NET mem_data_i\[30\] 4.219e+00
*DRIVER mem_data_i\[30\]
*CELL NULL
*C2_R1_C1 2.110e+00 3.558e-05 2.110e+00 
*LOADS
*RC stage_mem0/U70:A1 2.358e-05
*RC stage_mem0/U160:A2 3.386e-05
*RC stage_mem0/U197:A1 3.364e-05
*RC inst_fetch0/U64:A2 5.452e-05
*END

*R_NET mem_data_i\[29\] 4.202e+00
*DRIVER mem_data_i\[29\]
*CELL NULL
*C2_R1_C1 2.101e+00 3.594e-05 2.101e+00 
*LOADS
*RC stage_mem0/U75:A1 1.752e-05
*RC stage_mem0/U153:A2 2.830e-05
*RC stage_mem0/U195:A1 4.635e-05
*RC inst_fetch0/U63:A2 6.110e-05
*END

*R_NET mem_data_i\[28\] 4.841e+00
*DRIVER mem_data_i\[28\]
*CELL NULL
*C2_R1_C1 2.420e+00 4.544e-05 2.420e+00 
*LOADS
*RC stage_mem0/U80:A1 3.533e-05
*RC stage_mem0/U146:A2 4.513e-05
*RC stage_mem0/U193:A1 5.084e-05
*RC inst_fetch0/U62:A2 7.270e-05
*END

*R_NET mem_data_i\[27\] 4.244e+00
*DRIVER mem_data_i\[27\]
*CELL NULL
*C2_R1_C1 2.122e+00 3.707e-05 2.122e+00 
*LOADS
*RC stage_mem0/U85:A1 2.508e-05
*RC stage_mem0/U139:A2 2.933e-05
*RC stage_mem0/U191:A1 5.580e-05
*RC inst_fetch0/U61:A2 6.596e-05
*END

*R_NET mem_data_i\[26\] 4.098e+00
*DRIVER mem_data_i\[26\]
*CELL NULL
*C2_R1_C1 2.049e+00 3.442e-05 2.049e+00 
*LOADS
*RC stage_mem0/U90:A1 9.711e-06
*RC stage_mem0/U132:A2 3.549e-05
*RC stage_mem0/U189:A1 3.888e-05
*RC inst_fetch0/U60:A2 5.354e-05
*END

*R_NET mem_data_i\[25\] 5.979e+00
*DRIVER mem_data_i\[25\]
*CELL NULL
*C2_R1_C1 2.989e+00 6.199e-05 2.989e+00 
*LOADS
*RC stage_mem0/U95:A1 7.589e-05
*RC stage_mem0/U125:A2 8.578e-05
*RC stage_mem0/U187:A1 6.713e-05
*RC inst_fetch0/U59:A2 9.405e-05
*END

*R_NET mem_data_i\[24\] 4.830e+00
*DRIVER mem_data_i\[24\]
*CELL NULL
*C2_R1_C1 2.415e+00 4.294e-05 2.415e+00 
*LOADS
*RC stage_mem0/U100:A1 2.482e-05
*RC stage_mem0/U117:A3 6.218e-05
*RC stage_mem0/U185:A1 4.140e-05
*RC inst_fetch0/U58:A2 5.440e-05
*END

*R_NET mem_data_i\[23\] 5.714e+00
*DRIVER mem_data_i\[23\]
*CELL NULL
*C2_R1_C1 2.857e+00 5.530e-05 2.857e+00 
*LOADS
*RC stage_mem0/U62:A2 5.280e-05
*RC stage_mem0/U110:A1 6.026e-05
*RC stage_mem0/U183:A1 6.675e-05
*RC inst_fetch0/U57:A2 7.484e-05
*END

*R_NET mem_data_i\[22\] 3.346e+00
*DRIVER mem_data_i\[22\]
*CELL NULL
*C2_R1_C1 1.673e+00 3.099e-05 1.673e+00 
*LOADS
*RC stage_mem0/U162:A2 1.706e-05
*RC stage_mem0/U181:A1 3.420e-05
*RC inst_fetch0/U56:A2 4.370e-05
*END

*R_NET mem_data_i\[21\] 2.839e+00
*DRIVER mem_data_i\[21\]
*CELL NULL
*C2_R1_C1 1.419e+00 2.215e-05 1.419e+00 
*LOADS
*RC stage_mem0/U155:A2 1.040e-05
*RC stage_mem0/U178:A1 1.931e-05
*RC inst_fetch0/U55:A2 2.865e-05
*END

*R_NET mem_data_i\[20\] 3.586e+00
*DRIVER mem_data_i\[20\]
*CELL NULL
*C2_R1_C1 1.793e+00 3.388e-05 1.793e+00 
*LOADS
*RC stage_mem0/U148:A2 2.319e-05
*RC stage_mem0/U176:A1 3.743e-05
*RC inst_fetch0/U54:A2 4.344e-05
*END

*R_NET mem_data_i\[19\] 2.743e+00
*DRIVER mem_data_i\[19\]
*CELL NULL
*C2_R1_C1 1.371e+00 2.125e-05 1.371e+00 
*LOADS
*RC stage_mem0/U141:A2 1.162e-05
*RC stage_mem0/U174:A1 1.361e-05
*RC inst_fetch0/U53:A2 2.660e-05
*END

*R_NET mem_data_i\[18\] 2.811e+00
*DRIVER mem_data_i\[18\]
*CELL NULL
*C2_R1_C1 1.406e+00 2.286e-05 1.406e+00 
*LOADS
*RC stage_mem0/U134:A2 1.239e-05
*RC stage_mem0/U172:A1 1.731e-05
*RC inst_fetch0/U52:A2 2.869e-05
*END

*R_NET mem_data_i\[17\] 4.191e+00
*DRIVER mem_data_i\[17\]
*CELL NULL
*C2_R1_C1 2.096e+00 4.551e-05 2.096e+00 
*LOADS
*RC stage_mem0/U127:A2 4.497e-05
*RC stage_mem0/U170:A1 4.268e-05
*RC inst_fetch0/U51:A2 4.847e-05
*END

*R_NET mem_data_i\[16\] 3.443e+00
*DRIVER mem_data_i\[16\]
*CELL NULL
*C2_R1_C1 1.722e+00 3.261e-05 1.722e+00 
*LOADS
*RC stage_mem0/U120:A1 2.505e-05
*RC stage_mem0/U166:A1 2.144e-05
*RC inst_fetch0/U50:A2 3.999e-05
*END

*R_NET mem_data_i\[15\] 5.741e+00
*DRIVER mem_data_i\[15\]
*CELL NULL
*C2_R1_C1 2.870e+00 5.515e-05 2.870e+00 
*LOADS
*RC stage_mem0/U58:A1 3.577e-05
*RC stage_mem0/U60:A2 6.504e-05
*RC stage_mem0/U167:A1 6.220e-05
*RC inst_fetch0/U49:A2 6.546e-05
*END

*R_NET mem_data_i\[14\] 2.826e+00
*DRIVER mem_data_i\[14\]
*CELL NULL
*C2_R1_C1 1.413e+00 2.392e-05 1.413e+00 
*LOADS
*RC stage_mem0/U73:A2 6.015e-06
*RC stage_mem0/U158:A2 1.542e-05
*RC inst_fetch0/U47:A2 3.017e-05
*END

*R_NET mem_data_i\[13\] 3.074e+00
*DRIVER mem_data_i\[13\]
*CELL NULL
*C2_R1_C1 1.537e+00 2.721e-05 1.537e+00 
*LOADS
*RC stage_mem0/U78:A2 2.366e-06
*RC stage_mem0/U151:A2 1.475e-05
*RC inst_fetch0/U46:A2 3.775e-05
*END

*R_NET mem_data_i\[12\] 3.096e+00
*DRIVER mem_data_i\[12\]
*CELL NULL
*C2_R1_C1 1.548e+00 2.821e-05 1.548e+00 
*LOADS
*RC stage_mem0/U83:A2 4.175e-06
*RC stage_mem0/U144:A2 1.333e-05
*RC inst_fetch0/U45:A2 3.863e-05
*END

*R_NET mem_data_i\[11\] 2.683e+00
*DRIVER mem_data_i\[11\]
*CELL NULL
*C2_R1_C1 1.342e+00 2.014e-05 1.342e+00 
*LOADS
*RC stage_mem0/U88:A2 4.131e-06
*RC stage_mem0/U137:A2 6.969e-06
*RC inst_fetch0/U44:A2 2.511e-05
*END

*R_NET mem_data_i\[10\] 3.031e+00
*DRIVER mem_data_i\[10\]
*CELL NULL
*C2_R1_C1 1.515e+00 2.629e-05 1.515e+00 
*LOADS
*RC stage_mem0/U93:A2 3.621e-06
*RC stage_mem0/U130:A2 1.515e-05
*RC inst_fetch0/U43:A2 3.586e-05
*END

*R_NET mem_data_i\[9\] 2.963e+00
*DRIVER mem_data_i\[9\]
*CELL NULL
*C2_R1_C1 1.482e+00 2.458e-05 1.482e+00 
*LOADS
*RC stage_mem0/U98:A2 1.919e-05
*RC stage_mem0/U123:A2 1.763e-05
*RC inst_fetch0/U42:A2 3.231e-05
*END

*R_NET mem_data_i\[8\] 2.974e+00
*DRIVER mem_data_i\[8\]
*CELL NULL
*C2_R1_C1 1.487e+00 2.461e-05 1.487e+00 
*LOADS
*RC stage_mem0/U103:A2 5.297e-06
*RC stage_mem0/U114:A1 1.723e-05
*RC inst_fetch0/U41:A2 3.335e-05
*END

*R_NET mem_data_i\[7\] 3.451e+00
*DRIVER mem_data_i\[7\]
*CELL NULL
*C2_R1_C1 1.725e+00 3.108e-05 1.725e+00 
*LOADS
*RC stage_mem0/U62:A4 3.038e-05
*RC stage_mem0/U105:A1 3.031e-05
*RC inst_fetch0/U40:A2 3.712e-05
*END

*R_NET mem_data_i\[6\] 2.155e+00
*DRIVER mem_data_i\[6\]
*CELL NULL
*C2_R1_C1 1.078e+00 2.186e-05 1.078e+00 
*LOADS
*RC stage_mem0/U158:A3 1.107e-05
*RC inst_fetch0/U39:A2 2.111e-05
*END

*R_NET mem_data_i\[5\] 2.546e+00
*DRIVER mem_data_i\[5\]
*CELL NULL
*C2_R1_C1 1.273e+00 2.898e-05 1.273e+00 
*LOADS
*RC stage_mem0/U151:A3 1.509e-05
*RC inst_fetch0/U38:A2 3.344e-05
*END

*R_NET mem_data_i\[4\] 2.508e+00
*DRIVER mem_data_i\[4\]
*CELL NULL
*C2_R1_C1 1.254e+00 2.865e-05 1.254e+00 
*LOADS
*RC stage_mem0/U144:A3 1.115e-05
*RC inst_fetch0/U37:A2 2.789e-05
*END

*R_NET mem_data_i\[3\] 2.263e+00
*DRIVER mem_data_i\[3\]
*CELL NULL
*C2_R1_C1 1.131e+00 2.413e-05 1.131e+00 
*LOADS
*RC stage_mem0/U137:A3 7.755e-06
*RC inst_fetch0/U36:A2 2.536e-05
*END

*R_NET mem_data_i\[2\] 2.251e+00
*DRIVER mem_data_i\[2\]
*CELL NULL
*C2_R1_C1 1.126e+00 2.385e-05 1.126e+00 
*LOADS
*RC stage_mem0/U130:A3 9.736e-06
*RC inst_fetch0/U35:A2 2.625e-05
*END

*R_NET mem_data_i\[1\] 2.577e+00
*DRIVER mem_data_i\[1\]
*CELL NULL
*C2_R1_C1 1.289e+00 2.940e-05 1.289e+00 
*LOADS
*RC stage_mem0/U123:A3 1.488e-05
*RC inst_fetch0/U34:A2 2.594e-05
*END

*R_NET mem_data_i\[0\] 2.448e+00
*DRIVER mem_data_i\[0\]
*CELL NULL
*C2_R1_C1 1.224e+00 2.698e-05 1.224e+00 
*LOADS
*RC stage_mem0/U114:A3 9.600e-06
*RC inst_fetch0/U33:A2 2.680e-05
*END

*R_NET mem_busy_i\[1\] 1.068e+01
*DRIVER mem_busy_i\[1\]
*CELL NULL
*C2_R1_C1 5.342e+00 1.187e-04 5.342e+00 
*LOADS
*RC stage_mem0/U3:A1 3.040e-04
*RC stage_mem0/U21:A2 3.140e-04
*RC inst_fetch0/U9:A3 2.503e-04
*RC inst_fetch0/U16:A2 2.452e-04
*RC inst_fetch0/U30:A4 2.856e-04
*END

*R_NET mem_busy_i\[0\] 1.065e+01
*DRIVER mem_busy_i\[0\]
*CELL NULL
*C2_R1_C1 5.326e+00 1.176e-04 5.326e+00 
*LOADS
*RC stage_mem0/U3:A2 3.066e-04
*RC stage_mem0/U21:A3 3.149e-04
*RC inst_fetch0/U9:A1 2.429e-04
*RC inst_fetch0/U16:A1 2.404e-04
*RC inst_fetch0/U30:A2 2.797e-04
*END

*R_NET mem_addr_o\[31\] 3.864e+00
*DRIVER U34:Y
*CELL AND2X1_LVT
*C2_R1_C1 1.932e+00 6.576e-05 1.932e+00 
*LOADS
*RC mem_addr_o\[31\] 8.469e-05
*END

*R_NET mem_addr_o\[30\] 3.885e+00
*DRIVER U33:Y
*CELL AND2X1_LVT
*C2_R1_C1 1.942e+00 6.612e-05 1.942e+00 
*LOADS
*RC mem_addr_o\[30\] 8.560e-05
*END

*R_NET mem_addr_o\[29\] 4.006e+00
*DRIVER U32:Y
*CELL AND2X1_LVT
*C2_R1_C1 2.003e+00 6.881e-05 2.003e+00 
*LOADS
*RC mem_addr_o\[29\] 9.189e-05
*END

*R_NET mem_addr_o\[28\] 7.231e-01
*DRIVER U31:Y
*CELL AND2X1_LVT
*C2_R1_C1 3.616e-01 1.452e-05 3.616e-01 
*LOADS
*RC mem_addr_o\[28\] 3.500e-06
*END

*R_NET mem_addr_o\[27\] 7.336e-01
*DRIVER U30:Y
*CELL AND2X1_LVT
*C2_R1_C1 3.668e-01 1.483e-05 3.668e-01 
*LOADS
*RC mem_addr_o\[27\] 3.627e-06
*END

*R_NET mem_addr_o\[26\] 5.174e-01
*DRIVER U29:Y
*CELL AND2X1_LVT
*C2_R1_C1 2.587e-01 9.044e-06 2.587e-01 
*LOADS
*RC mem_addr_o\[26\] 1.560e-06
*END

*R_NET mem_addr_o\[25\] 7.182e-02
*DRIVER U28:Y
*CELL AND2X1_LVT
*C2_R1_C1 3.591e-02 1.459e-06 3.591e-02 
*LOADS
*RC mem_addr_o\[25\] 3.492e-08
*END

*R_NET mem_addr_o\[24\] 2.424e-01
*DRIVER U27:Y
*CELL AND2X1_LVT
*C2_R1_C1 1.212e-01 4.548e-06 1.212e-01 
*LOADS
*RC mem_addr_o\[24\] 3.675e-07
*END

*R_NET mem_addr_o\[23\] 5.425e-01
*DRIVER U26:Y
*CELL AND2X1_LVT
*C2_R1_C1 2.713e-01 9.410e-06 2.713e-01 
*LOADS
*RC mem_addr_o\[23\] 1.702e-06
*END

*R_NET mem_addr_o\[22\] 4.000e-01
*DRIVER U25:Y
*CELL AND2X1_LVT
*C2_R1_C1 2.000e-01 7.786e-06 2.000e-01 
*LOADS
*RC mem_addr_o\[22\] 1.038e-06
*END

*R_NET mem_addr_o\[21\] 1.809e-01
*DRIVER U24:Y
*CELL AND2X1_LVT
*C2_R1_C1 9.046e-02 3.381e-06 9.046e-02 
*LOADS
*RC mem_addr_o\[21\] 2.039e-07
*END

*R_NET mem_addr_o\[20\] 6.420e-01
*DRIVER U23:Y
*CELL AND2X1_LVT
*C2_R1_C1 3.210e-01 1.349e-05 3.210e-01 
*LOADS
*RC mem_addr_o\[20\] 2.887e-06
*END

*R_NET mem_addr_o\[19\] 1.082e-01
*DRIVER U22:Y
*CELL AND2X1_LVT
*C2_R1_C1 5.411e-02 2.031e-06 5.411e-02 
*LOADS
*RC mem_addr_o\[19\] 7.326e-08
*END

*R_NET mem_addr_o\[18\] 5.466e-01
*DRIVER U21:Y
*CELL AND2X1_LVT
*C2_R1_C1 2.733e-01 1.115e-05 2.733e-01 
*LOADS
*RC mem_addr_o\[18\] 2.031e-06
*END

*R_NET mem_addr_o\[17\] 7.032e-02
*DRIVER U20:Y
*CELL AND2X1_LVT
*C2_R1_C1 3.516e-02 1.398e-06 3.516e-02 
*LOADS
*RC mem_addr_o\[17\] 3.276e-08
*END

*R_NET mem_addr_o\[16\] 1.595e-01
*DRIVER U19:Y
*CELL AND2X1_LVT
*C2_R1_C1 7.977e-02 3.110e-06 7.977e-02 
*LOADS
*RC mem_addr_o\[16\] 1.654e-07
*END

*R_NET mem_addr_o\[15\] 1.587e-01
*DRIVER U18:Y
*CELL AND2X1_LVT
*C2_R1_C1 7.937e-02 3.075e-06 7.937e-02 
*LOADS
*RC mem_addr_o\[15\] 1.627e-07
*END

*R_NET mem_addr_o\[14\] 9.852e-02
*DRIVER U17:Y
*CELL AND2X1_LVT
*C2_R1_C1 4.926e-02 1.869e-06 4.926e-02 
*LOADS
*RC mem_addr_o\[14\] 6.138e-08
*END

*R_NET mem_addr_o\[13\] 8.957e-02
*DRIVER U16:Y
*CELL AND2X1_LVT
*C2_R1_C1 4.478e-02 1.720e-06 4.478e-02 
*LOADS
*RC mem_addr_o\[13\] 5.133e-08
*END

*R_NET mem_addr_o\[12\] 4.292e-01
*DRIVER U15:Y
*CELL AND2X1_LVT
*C2_R1_C1 2.146e-01 8.762e-06 2.146e-01 
*LOADS
*RC mem_addr_o\[12\] 1.253e-06
*END

*R_NET mem_addr_o\[11\] 1.674e-01
*DRIVER U14:Y
*CELL AND2X1_LVT
*C2_R1_C1 8.372e-02 3.145e-06 8.372e-02 
*LOADS
*RC mem_addr_o\[11\] 1.755e-07
*END

*R_NET mem_addr_o\[10\] 5.698e-01
*DRIVER U13:Y
*CELL AND2X1_LVT
*C2_R1_C1 2.849e-01 1.165e-05 2.849e-01 
*LOADS
*RC mem_addr_o\[10\] 2.212e-06
*END

*R_NET mem_addr_o\[9\] 1.335e-01
*DRIVER U12:Y
*CELL AND2X1_LVT
*C2_R1_C1 6.677e-02 2.465e-06 6.677e-02 
*LOADS
*RC mem_addr_o\[9\] 1.097e-07
*END

*R_NET mem_addr_o\[8\] 1.455e-01
*DRIVER U11:Y
*CELL AND2X1_LVT
*C2_R1_C1 7.276e-02 2.979e-06 7.276e-02 
*LOADS
*RC mem_addr_o\[8\] 1.445e-07
*END

*R_NET mem_addr_o\[7\] 1.196e-01
*DRIVER U10:Y
*CELL AND2X1_LVT
*C2_R1_C1 5.980e-02 2.221e-06 5.980e-02 
*LOADS
*RC mem_addr_o\[7\] 8.854e-08
*END

*R_NET mem_addr_o\[6\] 2.127e-01
*DRIVER U9:Y
*CELL AND2X1_LVT
*C2_R1_C1 1.063e-01 4.557e-06 1.063e-01 
*LOADS
*RC mem_addr_o\[6\] 3.230e-07
*END

*R_NET mem_addr_o\[5\] 5.331e-01
*DRIVER U8:Y
*CELL AND2X1_LVT
*C2_R1_C1 2.665e-01 1.127e-05 2.665e-01 
*LOADS
*RC mem_addr_o\[5\] 2.002e-06
*END

*R_NET mem_addr_o\[4\] 6.430e-01
*DRIVER U7:Y
*CELL AND2X1_LVT
*C2_R1_C1 3.215e-01 1.362e-05 3.215e-01 
*LOADS
*RC mem_addr_o\[4\] 2.918e-06
*END

*R_NET mem_addr_o\[3\] 6.980e-01
*DRIVER U6:Y
*CELL AND2X1_LVT
*C2_R1_C1 3.490e-01 1.442e-05 3.490e-01 
*LOADS
*RC mem_addr_o\[3\] 3.355e-06
*END

*R_NET mem_addr_o\[2\] 1.176e+00
*DRIVER U5:Y
*CELL AND2X1_LVT
*C2_R1_C1 5.880e-01 2.283e-05 5.880e-01 
*LOADS
*RC mem_addr_o\[2\] 8.947e-06
*END

*R_NET mem_addr_o\[1\] 1.392e+00
*DRIVER U4:Y
*CELL AND2X1_LVT
*C2_R1_C1 6.959e-01 2.721e-05 6.959e-01 
*LOADS
*RC mem_addr_o\[1\] 1.262e-05
*END

*R_NET mem_addr_o\[0\] 1.665e+00
*DRIVER U3:Y
*CELL AND2X1_LVT
*C2_R1_C1 8.327e-01 3.397e-05 8.327e-01 
*LOADS
*RC mem_addr_o\[0\] 1.885e-05
*END

*R_NET mem_data_o\[31\] 4.989e-01
*DRIVER stage_mem0/mem_data_o_reg\[31\]:Q
*CELL LATCHX1_LVT
*C2_R1_C1 2.494e-01 9.055e-06 2.494e-01 
*LOADS
*RC mem_data_o\[31\] 1.506e-06
*END

*R_NET mem_data_o\[30\] 2.713e-01
*DRIVER stage_mem0/mem_data_o_reg\[30\]:Q
*CELL LATCHX1_LVT
*C2_R1_C1 1.356e-01 4.930e-06 1.356e-01 
*LOADS
*RC mem_data_o\[30\] 4.458e-07
*END

*R_NET mem_data_o\[29\] 5.079e-01
*DRIVER stage_mem0/mem_data_o_reg\[29\]:Q
*CELL LATCHX1_LVT
*C2_R1_C1 2.539e-01 9.380e-06 2.539e-01 
*LOADS
*RC mem_data_o\[29\] 1.588e-06
*END

*R_NET mem_data_o\[28\] 2.100e-01
*DRIVER stage_mem0/mem_data_o_reg\[28\]:Q
*CELL LATCHX1_LVT
*C2_R1_C1 1.050e-01 3.610e-06 1.050e-01 
*LOADS
*RC mem_data_o\[28\] 2.527e-07
*END

*R_NET mem_data_o\[27\] 1.534e+00
*DRIVER stage_mem0/mem_data_o_reg\[27\]:Q
*CELL LATCHX1_LVT
*C2_R1_C1 7.671e-01 3.178e-05 7.671e-01 
*LOADS
*RC mem_data_o\[27\] 1.625e-05
*END

*R_NET mem_data_o\[26\] 1.458e+00
*DRIVER stage_mem0/mem_data_o_reg\[26\]:Q
*CELL LATCHX1_LVT
*C2_R1_C1 7.290e-01 2.995e-05 7.290e-01 
*LOADS
*RC mem_data_o\[26\] 1.455e-05
*END

*R_NET mem_data_o\[25\] 1.474e+00
*DRIVER stage_mem0/mem_data_o_reg\[25\]:Q
*CELL LATCHX1_LVT
*C2_R1_C1 7.368e-01 3.083e-05 7.368e-01 
*LOADS
*RC mem_data_o\[25\] 1.514e-05
*END

*R_NET mem_data_o\[24\] 2.684e-01
*DRIVER stage_mem0/mem_data_o_reg\[24\]:Q
*CELL LATCHX1_LVT
*C2_R1_C1 1.342e-01 4.517e-06 1.342e-01 
*LOADS
*RC mem_data_o\[24\] 4.041e-07
*END

*R_NET mem_data_o\[23\] 2.291e+00
*DRIVER stage_mem0/mem_data_o_reg\[23\]:Q
*CELL LATCHX1_LVT
*C2_R1_C1 1.145e+00 4.843e-05 1.145e+00 
*LOADS
*RC mem_data_o\[23\] 3.697e-05
*END

*R_NET mem_data_o\[22\] 1.130e+00
*DRIVER stage_mem0/mem_data_o_reg\[22\]:Q
*CELL LATCHX1_LVT
*C2_R1_C1 5.649e-01 2.272e-05 5.649e-01 
*LOADS
*RC mem_data_o\[22\] 8.556e-06
*END

*R_NET mem_data_o\[21\] 1.136e+00
*DRIVER stage_mem0/mem_data_o_reg\[21\]:Q
*CELL LATCHX1_LVT
*C2_R1_C1 5.678e-01 2.327e-05 5.678e-01 
*LOADS
*RC mem_data_o\[21\] 8.809e-06
*END

*R_NET mem_data_o\[20\] 1.263e+00
*DRIVER stage_mem0/mem_data_o_reg\[20\]:Q
*CELL LATCHX1_LVT
*C2_R1_C1 6.316e-01 2.490e-05 6.316e-01 
*LOADS
*RC mem_data_o\[20\] 1.048e-05
*END

*R_NET mem_data_o\[19\] 1.212e+00
*DRIVER stage_mem0/mem_data_o_reg\[19\]:Q
*CELL LATCHX1_LVT
*C2_R1_C1 6.058e-01 2.519e-05 6.058e-01 
*LOADS
*RC mem_data_o\[19\] 1.017e-05
*END

*R_NET mem_data_o\[18\] 1.713e+00
*DRIVER stage_mem0/mem_data_o_reg\[18\]:Q
*CELL LATCHX1_LVT
*C2_R1_C1 8.564e-01 3.536e-05 8.564e-01 
*LOADS
*RC mem_data_o\[18\] 2.019e-05
*END

*R_NET mem_data_o\[17\] 1.385e+00
*DRIVER stage_mem0/mem_data_o_reg\[17\]:Q
*CELL LATCHX1_LVT
*C2_R1_C1 6.923e-01 2.830e-05 6.923e-01 
*LOADS
*RC mem_data_o\[17\] 1.306e-05
*END

*R_NET mem_data_o\[16\] 5.654e-01
*DRIVER stage_mem0/mem_data_o_reg\[16\]:Q
*CELL LATCHX1_LVT
*C2_R1_C1 2.827e-01 1.127e-05 2.827e-01 
*LOADS
*RC mem_data_o\[16\] 2.123e-06
*END

*R_NET mem_data_o\[15\] 2.273e-01
*DRIVER stage_mem0/mem_data_o_reg\[15\]:Q
*CELL LATCHX1_LVT
*C2_R1_C1 1.137e-01 3.984e-06 1.137e-01 
*LOADS
*RC mem_data_o\[15\] 3.019e-07
*END

*R_NET mem_data_o\[14\] 2.697e-01
*DRIVER stage_mem0/mem_data_o_reg\[14\]:Q
*CELL LATCHX1_LVT
*C2_R1_C1 1.348e-01 4.895e-06 1.348e-01 
*LOADS
*RC mem_data_o\[14\] 4.400e-07
*END

*R_NET mem_data_o\[13\] 1.001e+00
*DRIVER stage_mem0/mem_data_o_reg\[13\]:Q
*CELL LATCHX1_LVT
*C2_R1_C1 5.005e-01 1.933e-05 5.005e-01 
*LOADS
*RC mem_data_o\[13\] 6.448e-06
*END

*R_NET mem_data_o\[12\] 4.954e-01
*DRIVER stage_mem0/mem_data_o_reg\[12\]:Q
*CELL LATCHX1_LVT
*C2_R1_C1 2.477e-01 8.440e-06 2.477e-01 
*LOADS
*RC mem_data_o\[12\] 1.394e-06
*END

*R_NET mem_data_o\[11\] 1.821e+00
*DRIVER stage_mem0/mem_data_o_reg\[11\]:Q
*CELL LATCHX1_LVT
*C2_R1_C1 9.105e-01 3.831e-05 9.105e-01 
*LOADS
*RC mem_data_o\[11\] 2.325e-05
*END

*R_NET mem_data_o\[10\] 5.947e-01
*DRIVER stage_mem0/mem_data_o_reg\[10\]:Q
*CELL LATCHX1_LVT
*C2_R1_C1 2.974e-01 1.023e-05 2.974e-01 
*LOADS
*RC mem_data_o\[10\] 2.027e-06
*END

*R_NET mem_data_o\[9\] 1.350e+00
*DRIVER stage_mem0/mem_data_o_reg\[9\]:Q
*CELL LATCHX1_LVT
*C2_R1_C1 6.749e-01 2.816e-05 6.749e-01 
*LOADS
*RC mem_data_o\[9\] 1.267e-05
*END

*R_NET mem_data_o\[8\] 2.440e-01
*DRIVER stage_mem0/mem_data_o_reg\[8\]:Q
*CELL LATCHX1_LVT
*C2_R1_C1 1.220e-01 4.343e-06 1.220e-01 
*LOADS
*RC mem_data_o\[8\] 3.532e-07
*END

*R_NET mem_data_o\[7\] 2.810e-01
*DRIVER stage_mem0/mem_data_o_reg\[7\]:Q
*CELL LATCHX1_LVT
*C2_R1_C1 1.405e-01 5.153e-06 1.405e-01 
*LOADS
*RC mem_data_o\[7\] 4.826e-07
*END

*R_NET mem_data_o\[6\] 8.162e-01
*DRIVER stage_mem0/mem_data_o_reg\[6\]:Q
*CELL LATCHX1_LVT
*C2_R1_C1 4.081e-01 1.663e-05 4.081e-01 
*LOADS
*RC mem_data_o\[6\] 4.525e-06
*END

*R_NET mem_data_o\[5\] 6.316e-01
*DRIVER stage_mem0/mem_data_o_reg\[5\]:Q
*CELL LATCHX1_LVT
*C2_R1_C1 3.158e-01 1.251e-05 3.158e-01 
*LOADS
*RC mem_data_o\[5\] 2.633e-06
*END

*R_NET mem_data_o\[4\] 2.961e-01
*DRIVER stage_mem0/mem_data_o_reg\[4\]:Q
*CELL LATCHX1_LVT
*C2_R1_C1 1.481e-01 5.334e-06 1.481e-01 
*LOADS
*RC mem_data_o\[4\] 5.264e-07
*END

*R_NET mem_data_o\[3\] 2.058e-01
*DRIVER stage_mem0/mem_data_o_reg\[3\]:Q
*CELL LATCHX1_LVT
*C2_R1_C1 1.029e-01 3.520e-06 1.029e-01 
*LOADS
*RC mem_data_o\[3\] 2.415e-07
*END

*R_NET mem_data_o\[2\] 7.681e-01
*DRIVER stage_mem0/mem_data_o_reg\[2\]:Q
*CELL LATCHX1_LVT
*C2_R1_C1 3.840e-01 1.563e-05 3.840e-01 
*LOADS
*RC mem_data_o\[2\] 4.002e-06
*END

*R_NET mem_data_o\[1\] 1.109e+00
*DRIVER stage_mem0/mem_data_o_reg\[1\]:Q
*CELL LATCHX1_LVT
*C2_R1_C1 5.547e-01 2.273e-05 5.547e-01 
*LOADS
*RC mem_data_o\[1\] 8.406e-06
*END

*R_NET mem_data_o\[0\] 9.749e-01
*DRIVER stage_mem0/mem_data_o_reg\[0\]:Q
*CELL LATCHX1_LVT
*C2_R1_C1 4.874e-01 1.983e-05 4.874e-01 
*LOADS
*RC mem_data_o\[0\] 6.443e-06
*END

*R_NET stallreq_if 1.020e+00
*DRIVER inst_fetch0/stallreq_reg:Q
*CELL LATCHX1_LVT
*C2_R1_C1 5.098e-01 1.000e-05 5.098e-01 
*LOADS
*RC stall_ctrl0/U6:A1 7.091e-06
*END

*R_NET stallreq_id 7.540e-01
*DRIVER inst_decoder0/U319:Y
*CELL NAND2X0_LVT
*C2_R1_C1 3.770e-01 3.611e-06 3.770e-01 
*LOADS
*RC stall_ctrl0/U5:A2 2.298e-06
*END

*R_NET stallreq_mem 3.523e+00
*DRIVER stage_mem0/U295:Y
*CELL NAND2X0_LVT
*C2_R1_C1 1.762e+00 4.358e-05 1.762e+00 
*LOADS
*RC stall_ctrl0/U4:A1 5.094e-05
*RC stall_ctrl0/U5:A1 6.685e-05
*END

*R_NET stall\[4\] 5.273e+00
*DRIVER stall_ctrl0/U4:Y
*CELL AND2X1_LVT
*C2_R1_C1 2.637e+00 3.689e-05 2.637e+00 
*LOADS
*RC pipe_mem_wb0/U3:A1 1.994e-05
*RC pipe_ex_mem0/U4:A1 5.835e-05
*RC pipe_ex_mem0/U8:A1 6.340e-05
*RC pipe_ex_mem0/U4:A2 5.716e-05
*RC pipe_id_ex0/U4:A2 3.739e-05
*END

*R_NET stall\[2\] 5.527e+00
*DRIVER stall_ctrl0/U5:Y
*CELL OA21X1_LVT
*C2_R1_C1 2.763e+00 5.431e-05 2.763e+00 
*LOADS
*RC pipe_id_ex0/U4:A1 4.771e-05
*RC pipe_id_ex0/U8:A1 4.401e-05
*RC pipe_if_id0/U7:A3 6.909e-05
*RC stall_ctrl0/U6:A3 6.791e-05
*END

*R_NET stall\[1\] 3.221e+00
*DRIVER stall_ctrl0/U6:Y
*CELL AO21X1_LVT
*C2_R1_C1 1.611e+00 1.448e-05 1.611e+00 
*LOADS
*RC pipe_if_id0/U3:A1 1.657e-05
*RC pipe_if_id0/U7:A1 3.100e-06
*RC program_counter0/U14:A1 1.400e-05
*RC program_counter0/U7:A1 1.533e-05
*END

*R_NET br 1.503e+01
*DRIVER inst_decoder0/U285:Y
*CELL NAND2X2_LVT
*C2_R1_C1 7.516e+00 1.078e-04 7.516e+00 
*LOADS
*RC pipe_if_id0/U3:A3 2.837e-04
*RC pipe_if_id0/U6:A2 2.186e-04
*RC inst_fetch0/U5:A 3.030e-04
*RC inst_fetch0/U3:A2 2.455e-04
*RC inst_fetch0/U19:A2 3.652e-04
*RC inst_fetch0/U137:A1 2.542e-04
*RC program_counter0/U4:A 3.134e-04
*RC program_counter0/U5:A1 2.992e-04
*RC program_counter0/U6:A1 3.098e-04
*RC program_counter0/U10:A1 1.968e-04
*RC program_counter0/U13:A1 1.933e-04
*END

*R_NET br_addr\[31\] 6.260e-01
*DRIVER inst_decoder0/U696:Y
*CELL AND2X1_LVT
*C2_R1_C1 3.130e-01 1.386e-06 3.130e-01 
*LOADS
*RC program_counter0/U166:A1 8.005e-07
*END

*R_NET br_addr\[30\] 6.499e-01
*DRIVER inst_decoder0/U691:Y
*CELL AND2X1_LVT
*C2_R1_C1 3.249e-01 2.602e-06 3.249e-01 
*LOADS
*RC program_counter0/U162:A1 1.469e-06
*END

*R_NET br_addr\[29\] 6.385e-01
*DRIVER inst_decoder0/U687:Y
*CELL AND2X1_LVT
*C2_R1_C1 3.192e-01 2.515e-06 3.192e-01 
*LOADS
*RC program_counter0/U158:A2 1.404e-06
*END

*R_NET br_addr\[28\] 6.672e-01
*DRIVER inst_decoder0/U683:Y
*CELL AND2X1_LVT
*C2_R1_C1 3.336e-01 2.243e-06 3.336e-01 
*LOADS
*RC program_counter0/U152:A1 1.326e-06
*END

*R_NET br_addr\[27\] 5.835e-01
*DRIVER inst_decoder0/U680:Y
*CELL AND2X1_LVT
*C2_R1_C1 2.918e-01 2.196e-06 2.918e-01 
*LOADS
*RC program_counter0/U149:A2 1.117e-06
*END

*R_NET br_addr\[26\] 7.169e-01
*DRIVER inst_decoder0/U677:Y
*CELL AND2X1_LVT
*C2_R1_C1 3.584e-01 3.120e-06 3.584e-01 
*LOADS
*RC program_counter0/U142:A1 1.896e-06
*END

*R_NET br_addr\[25\] 5.604e-01
*DRIVER inst_decoder0/U674:Y
*CELL AND2X1_LVT
*C2_R1_C1 2.802e-01 1.593e-06 2.802e-01 
*LOADS
*RC program_counter0/U139:A2 7.981e-07
*END

*R_NET br_addr\[24\] 6.933e-01
*DRIVER inst_decoder0/U671:Y
*CELL AND2X1_LVT
*C2_R1_C1 3.467e-01 2.526e-06 3.467e-01 
*LOADS
*RC program_counter0/U132:A1 1.515e-06
*END

*R_NET br_addr\[23\] 6.200e-01
*DRIVER inst_decoder0/U668:Y
*CELL AND2X1_LVT
*C2_R1_C1 3.100e-01 2.605e-06 3.100e-01 
*LOADS
*RC program_counter0/U129:A2 1.357e-06
*END

*R_NET br_addr\[22\] 7.413e-01
*DRIVER inst_decoder0/U665:Y
*CELL AND2X1_LVT
*C2_R1_C1 3.706e-01 3.227e-06 3.706e-01 
*LOADS
*RC program_counter0/U122:A1 1.987e-06
*END

*R_NET br_addr\[21\] 5.655e-01
*DRIVER inst_decoder0/U662:Y
*CELL AND2X1_LVT
*C2_R1_C1 2.828e-01 1.677e-06 2.828e-01 
*LOADS
*RC program_counter0/U119:A2 8.428e-07
*END

*R_NET br_addr\[20\] 8.769e-01
*DRIVER inst_decoder0/U659:Y
*CELL AND2X1_LVT
*C2_R1_C1 4.384e-01 6.913e-06 4.384e-01 
*LOADS
*RC program_counter0/U112:A1 4.570e-06
*END

*R_NET br_addr\[19\] 1.008e+00
*DRIVER inst_decoder0/U656:Y
*CELL AND2X1_LVT
*C2_R1_C1 5.038e-01 1.125e-05 5.038e-01 
*LOADS
*RC program_counter0/U109:A2 7.309e-06
*END

*R_NET br_addr\[18\] 9.317e-01
*DRIVER inst_decoder0/U652:Y
*CELL AND2X1_LVT
*C2_R1_C1 4.658e-01 8.145e-06 4.658e-01 
*LOADS
*RC program_counter0/U102:A1 5.533e-06
*END

*R_NET br_addr\[17\] 6.203e-01
*DRIVER inst_decoder0/U648:Y
*CELL AND2X1_LVT
*C2_R1_C1 3.102e-01 2.915e-06 3.102e-01 
*LOADS
*RC program_counter0/U99:A2 1.518e-06
*END

*R_NET br_addr\[16\] 8.923e-01
*DRIVER inst_decoder0/U644:Y
*CELL AND2X1_LVT
*C2_R1_C1 4.462e-01 7.045e-06 4.462e-01 
*LOADS
*RC program_counter0/U92:A1 4.693e-06
*END

*R_NET br_addr\[15\] 9.169e-01
*DRIVER inst_decoder0/U640:Y
*CELL AND2X1_LVT
*C2_R1_C1 4.584e-01 9.285e-06 4.584e-01 
*LOADS
*RC program_counter0/U89:A2 5.754e-06
*END

*R_NET br_addr\[14\] 1.031e+00
*DRIVER inst_decoder0/U635:Y
*CELL AND2X1_LVT
*C2_R1_C1 5.157e-01 9.969e-06 5.157e-01 
*LOADS
*RC program_counter0/U82:A1 7.103e-06
*END

*R_NET br_addr\[13\] 1.364e+00
*DRIVER inst_decoder0/U631:Y
*CELL AND2X1_LVT
*C2_R1_C1 6.822e-01 1.921e-05 6.822e-01 
*LOADS